data/irish_network/pylon_converted/SummerNightValley2022_pylon.m
function mpc = SummerNightValley2022_pylon

%% MATPOWER Case Format : Version 2
mpc.version = '2';

%%%%-----  Power Flow Data  -----%%%%
%%%% system MVA base
mpc.baseMVA = 100;

%%%% bus data
%%	bus_i	type	Pd	Qd	Gs	Bs	area	Vm	Va	baseKV	zone	Vmax	Vmin	lam_P	lam_Q	mu_Vmax	mu_Vmin
mpc.bus = [
	10	1	22.98	4.04	0	0	1	1.03675	-11.2705	38	1	1.1	0.9	0.0000	0.0000	0.0000	0.0000;
	11	1	13.04	5.72	0	0	1	1.03528	-10.4999	38	1	1.1	0.9	0.0000	0.0000	0.0000	0.0000;
	12	1	22.98	3.3	0	0	1	1.02749	-12.2559	38	1	1.1	0.9	0.0000	0.0000	0.0000	0.0000;
	13	1	22.14	0.47	0	0	1	1.04317	-12.1185	38	1	1.1	0.9	0.0000	0.0000	0.0000	0.0000;
	14	1	21.11	6.94	0	0	1	1.05072	-11.5441	38	1	1.1	0.9	0.0000	0.0000	0.0000	0.0000;
	15	1	18.04	5.94	0	0	1	1.02678	-11.1949	38	1	1.1	0.9	0.0000	0.0000	0.0000	0.0000;
	1021	1	0	0	0	0	1	1.00082	-5.5889	110	1	1.1	0.9	0.0000	0.0000	0.0000	0.0000;
	1041	1	0.51	0.1	0	0	1	1.0009	-4.9962	110	1	1.1	0.9	0.0000	0.0000	0.0000	0.0000;
	1042	1	0	0	0	0	1	1	-4.1771	220	1	1.1	0.9	0.0000	0.0000	0.0000	0.0000;
	1052	1	0	0	0	0	1	0.99358	-3.6776	220	1	1.1	0.9	0.0000	0.0000	0.0000	0.0000;
	1061	1	0	0	0	0	1	1.01143	-2.9098	110	1	1.1	0.9	0.0000	0.0000	0.0000	0.0000;
	1062	1	0	0	0	0	1	1	-4.1771	220	1	1.1	0.9	0.0000	0.0000	0.0000	0.0000;
	1071	1	0	0	0	0	1	1.0027	-3.4824	110	1	1.1	0.9	0.0000	0.0000	0.0000	0.0000;
	1072	1	0	0	0	0	1	1	-4.1812	220	1	1.1	0.9	0.0000	0.0000	0.0000	0.0000;
	1081	1	0	0	0	0	1	1.00273	-5.5045	110	1	1.1	0.9	0.0000	0.0000	0.0000	0.0000;
	1091	1	0	0	0	0	1	0.99748	-11.2966	110	1	1.1	0.9	0.0000	0.0000	0.0000	0.0000;
	1101	1	16.62	4.98	0	0	1	0.99941	-6.4815	110	1	1.1	0.9	0.0000	0.0000	0.0000	0.0000;
	1121	1	0	0	0	0	1	1.01256	-7.641	110	1	1.1	0.9	0.0000	0.0000	0.0000	0.0000;
	1122	1	0	0	0	0	1	1.0086	-7.5279	220	1	1.1	0.9	0.0000	0.0000	0.0000	0.0000;
	1131	1	0	0	0	0	1	0.99986	-1.2459	110	1	1.1	0.9	0.0000	0.0000	0.0000	0.0000;
	1141	1	0	0	0	0	1	0.99631	-4.601	110	1	1.1	0.9	0.0000	0.0000	0.0000	0.0000;
	1151	1	0	0	0	0	1	0.99986	-1.2459	110	1	1.1	0.9	0.0000	0.0000	0.0000	0.0000;
	1161	1	0	0	0	0	1	1	-4.3631	110	1	1.1	0.9	0.0000	0.0000	0.0000	0.0000;
	1181	1	0	0	0	0	1	1.00332	-5.4737	110	1	1.1	0.9	0.0000	0.0000	0.0000	0.0000;
	1201	1	0	0	0	0	1	1.01712	-9.5077	110	1	1.1	0.9	0.0000	0.0000	0.0000	0.0000;
	1211	1	0	0	0	0	1	1.06335	-1.3118	110	1	1.1	0.9	0.0000	0.0000	0.0000	0.0000;
	1212	1	0	0	0	0	1	1.00428	-2.1643	220	1	1.1	0.9	0.0000	0.0000	0.0000	0.0000;
	1221	1	0	0	0	0	1	1.02361	-7.7955	110	1	1.1	0.9	0.0000	0.0000	0.0000	0.0000;
	1231	1	0	0	0	0	1	1.01402	-6.5067	110	1	1.1	0.9	0.0000	0.0000	0.0000	0.0000;
	1251	1	0	0	0	0	1	1.00983	-4.7653	110	1	1.1	0.9	0.0000	0.0000	0.0000	0.0000;
	1271	1	0	0	0	0	1	1.00653	-8.9019	110	1	1.1	0.9	0.0000	0.0000	0.0000	0.0000;
	1281	1	0	0	0	0	1	1.00056	-3.805	110	1	1.1	0.9	0.0000	0.0000	0.0000	0.0000;
	1301	1	0	0	0	0	1	1.00867	-8.0977	110	1	1.1	0.9	0.0000	0.0000	0.0000	0.0000;
	1311	1	0	0	0	0	1	1.00174	-0.1626	110	1	1.1	0.9	0.0000	0.0000	0.0000	0.0000;
	1321	1	0	0	0	0	1	1.00267	-8.3684	110	1	1.1	0.9	0.0000	0.0000	0.0000	0.0000;
	1341	1	0	0	0	0	1	0.99835	-0.6327	110	1	1.1	0.9	0.0000	0.0000	0.0000	0.0000;
	1351	1	0	0	0	0	1	1	-8.2994	110	1	1.1	0.9	0.0000	0.0000	0.0000	0.0000;
	1361	1	0	0	0	0	1	1.00294	-6.7379	110	1	1.1	0.9	0.0000	0.0000	0.0000	0.0000;
	1381	1	0	0	0	0	1	0.99875	-5.1414	110	1	1.1	0.9	0.0000	0.0000	0.0000	0.0000;
	1391	1	0	0	0	0	1	0.9972	-5.2365	110	1	1.1	0.9	0.0000	0.0000	0.0000	0.0000;
	1400	1	0	0	0	0	1	1.00395	-2.3776	110	1	1.1	0.9	0.0000	0.0000	0.0000	0.0000;
	1401	1	0	0	0	0	1	1.01436	-3.0808	110	1	1.1	0.9	0.0000	0.0000	0.0000	0.0000;
	1404	1	0	0	0	0	1	1.06347	-2.4301	380	1	1.1	0.9	0.0000	0.0000	0.0000	0.0000;
	1421	1	0	0	0	0	1	1.00449	-9.4076	110	1	1.1	0.9	0.0000	0.0000	0.0000	0.0000;
	1431	1	0	0	0	0	1	1.01856	-8.0234	110	1	1.1	0.9	0.0000	0.0000	0.0000	0.0000;
	1441	1	0	0	0	0	1	0.99944	-5.3739	110	1	1.1	0.9	0.0000	0.0000	0.0000	0.0000;
	1451	1	0	0	0	0	1	1.00364	-9.4488	110	1	1.1	0.9	0.0000	0.0000	0.0000	0.0000;
	1461	1	0	0	0	0	1	1.00029	-5.244	110	1	1.1	0.9	0.0000	0.0000	0.0000	0.0000;
	1471	1	0	0	0	0	1	1.01447	-9.8037	110	1	1.1	0.9	0.0000	0.0000	0.0000	0.0000;
	1472	1	0	0	0	0	1	1.01493	-8.5461	220	1	1.1	0.9	0.0000	0.0000	0.0000	0.0000;
	1481	1	0	0	0	0	1	1.00925	-7.4415	110	1	1.1	0.9	0.0000	0.0000	0.0000	0.0000;
	1492	1	0	0	0	0	1	1.01711	-6.2351	220	1	1.1	0.9	0.0000	0.0000	0.0000	0.0000;
	1501	1	0	0	0	0	1	0.99927	-5.3838	110	1	1.1	0.9	0.0000	0.0000	0.0000	0.0000;
	1511	1	0	0	0	0	1	1	-0.9246	110	1	1.1	0.9	0.0000	0.0000	0.0000	0.0000;
	1541	1	0	0	0	0	1	1.01199	-7.2522	110	1	1.1	0.9	0.0000	0.0000	0.0000	0.0000;
	1551	1	0	0	0	0	1	1	0.0716	110	1	1.1	0.9	0.0000	0.0000	0.0000	0.0000;
	1571	1	0	0	0	0	1	0.9946	-0.2108	110	1	1.1	0.9	0.0000	0.0000	0.0000	0.0000;
	1581	1	0	0	0	0	1	1.017	-9.523	110	1	1.1	0.9	0.0000	0.0000	0.0000	0.0000;
	1601	1	0	0	0	0	1	1.00127	-4.5789	110	1	1.1	0.9	0.0000	0.0000	0.0000	0.0000;
	1602	1	0	0	0	0	1	1.00361	-2.7605	220	1	1.1	0.9	0.0000	0.0000	0.0000	0.0000;
	1611	1	0	0	0	0	1	1.00237	-4.9023	110	1	1.1	0.9	0.0000	0.0000	0.0000	0.0000;
	1621	1	0	0	0	0	1	0.9986	-5.2782	110	1	1.1	0.9	0.0000	0.0000	0.0000	0.0000;
	1631	1	0	0	0	0	1	1.01343	-2.2471	110	1	1.1	0.9	0.0000	0.0000	0.0000	0.0000;
	1641	1	0	0	0	0	1	1.01943	-4.4835	110	1	1.1	0.9	0.0000	0.0000	0.0000	0.0000;
	1642	1	0	0	0	0	1	1.02687	-4.6072	220	1	1.1	0.9	0.0000	0.0000	0.0000	0.0000;
	1651	1	0	0	0	0	1	1.00696	-4.6929	110	1	1.1	0.9	0.0000	0.0000	0.0000	0.0000;
	1661	1	0	0	0	0	1	1.03	-3.9858	110	1	1.1	0.9	0.0000	0.0000	0.0000	0.0000;
	1681	1	0	0	0	0	1	0.99991	-4.8016	110	1	1.1	0.9	0.0000	0.0000	0.0000	0.0000;
	1691	1	0	0	0	0	1	1.00461	-9.3573	110	1	1.1	0.9	0.0000	0.0000	0.0000	0.0000;
	1701	1	0	0	0	0	1	1.00238	-0.8284	110	1	1.1	0.9	0.0000	0.0000	0.0000	0.0000;
	1711	1	0	0	0	0	1	1.01397	-9.8468	110	1	1.1	0.9	0.0000	0.0000	0.0000	0.0000;
	1721	1	0	0	0	0	1	1.0006	-5.6241	110	1	1.1	0.9	0.0000	0.0000	0.0000	0.0000;
	1731	1	0	0	0	0	1	1.01397	-9.8468	110	1	1.1	0.9	0.0000	0.0000	0.0000	0.0000;
	1741	1	0	0	0	0	1	1.00437	-9.3358	110	1	1.1	0.9	0.0000	0.0000	0.0000	0.0000;
	1742	1	0	0	0	0	1	1.00396	-8.0039	220	1	1.1	0.9	0.0000	0.0000	0.0000	0.0000;
	1761	1	0	0	0	0	1	1.00239	-0.8287	110	1	1.1	0.9	0.0000	0.0000	0.0000	0.0000;
	1781	1	0	0	0	0	1	0.99962	-4.3838	110	1	1.1	0.9	0.0000	0.0000	0.0000	0.0000;
	1791	1	0	0	0	0	1	1.0038	-7.7338	110	1	1.1	0.9	0.0000	0.0000	0.0000	0.0000;
	1801	1	0	0	0	0	1	1.00377	-8.6458	110	1	1.1	0.9	0.0000	0.0000	0.0000	0.0000;
	1821	1	0	0	0	0	1	1.0164	-4.3526	110	1	1.1	0.9	0.0000	0.0000	0.0000	0.0000;
	1831	1	0	0	0	0	1	1.01718	-4.7087	110	1	1.1	0.9	0.0000	0.0000	0.0000	0.0000;
	1841	1	0	0	0	0	1	1.01289	-6.722	110	1	1.1	0.9	0.0000	0.0000	0.0000	0.0000;
	1851	1	0	0	0	0	1	1.00265	-9.4399	110	1	1.1	0.9	0.0000	0.0000	0.0000	0.0000;
	1861	1	0	0	0	0	1	1.01322	-3.9508	110	1	1.1	0.9	0.0000	0.0000	0.0000	0.0000;
	1871	1	0	0	0	0	1	1.00546	-9.2897	110	1	1.1	0.9	0.0000	0.0000	0.0000	0.0000;
	1881	1	0	0	0	0	1	0.99731	-5.7952	110	1	1.1	0.9	0.0000	0.0000	0.0000	0.0000;
	1891	1	0	0	0	0	1	1.00593	-8.5602	110	1	1.1	0.9	0.0000	0.0000	0.0000	0.0000;
	1901	1	0	0	0	0	1	1.02947	-7.9905	110	1	1.1	0.9	0.0000	0.0000	0.0000	0.0000;
	1911	1	0	0	0	0	1	0.99635	-4.6021	110	1	1.1	0.9	0.0000	0.0000	0.0000	0.0000;
	1921	1	0	0	0	0	1	0.99927	-5.1895	110	1	1.1	0.9	0.0000	0.0000	0.0000	0.0000;
	1931	1	0	0	0	0	1	1.01011	-1.9796	110	1	1.1	0.9	0.0000	0.0000	0.0000	0.0000;
	1941	1	0	0	0	0	1	1	-5.6213	110	1	1.1	0.9	0.0000	0.0000	0.0000	0.0000;
	1951	1	0	0	0	0	1	1.0284	-4.3674	110	1	1.1	0.9	0.0000	0.0000	0.0000	0.0000;
	1961	1	0	0	0	0	1	0.99963	-5.3144	110	1	1.1	0.9	0.0000	0.0000	0.0000	0.0000;
	1971	1	0	0	0	0	1	1.05463	0.1645	110	1	1.1	0.9	0.0000	0.0000	0.0000	0.0000;
	1981	1	0	0	0	0	1	0.99628	-4.0764	110	1	1.1	0.9	0.0000	0.0000	0.0000	0.0000;
	1991	1	0	0	0	0	1	1.01167	-6.4367	110	1	1.1	0.9	0.0000	0.0000	0.0000	0.0000;
	2001	1	0	0	0	0	1	1.00927	-7.1894	110	1	1.1	0.9	0.0000	0.0000	0.0000	0.0000;
	2002	1	0	0	0	0	1	1.01206	-6.6916	220	1	1.1	0.9	0.0000	0.0000	0.0000	0.0000;
	2011	1	0	0	0	0	1	0.99991	-4.8016	110	1	1.1	0.9	0.0000	0.0000	0.0000	0.0000;
	2021	1	0	0	0	0	1	0.99513	-11.6011	110	1	1.1	0.9	0.0000	0.0000	0.0000	0.0000;
	2041	1	0	0	0	0	1	1.00575	-9.2334	110	1	1.1	0.9	0.0000	0.0000	0.0000	0.0000;
	2042	1	0	0	0	0	1	1.01298	-8.3956	220	1	1.1	0.9	0.0000	0.0000	0.0000	0.0000;
	2051	1	0	0	0	0	1	0.99833	-5.4761	110	1	1.1	0.9	0.0000	0.0000	0.0000	0.0000;
	2052	1	0	0	0	0	1	1.01298	-8.3956	220	1	1.1	0.9	0.0000	0.0000	0.0000	0.0000;
	2081	4	0	0	0	0	1	1	0	110	1	1.1	0.9	0.0000	0.0000	0.0000	0.0000;
	2090	1	0	0	0	0	1	1.00698	-2.9055	110	1	1.1	0.9	0.0000	0.0000	0.0000	0.0000;
	2091	1	0	0	0	0	1	1.01905	-4.5292	110	1	1.1	0.9	0.0000	0.0000	0.0000	0.0000;
	2101	1	0	0	0	0	1	1.02158	-7.2064	110	1	1.1	0.9	0.0000	0.0000	0.0000	0.0000;
	2111	1	0	0	0	0	1	1.00022	-2.1519	110	1	1.1	0.9	0.0000	0.0000	0.0000	0.0000;
	2121	1	0	0	0	0	1	1.00031	-5.4815	110	1	1.1	0.9	0.0000	0.0000	0.0000	0.0000;
	2131	1	0	0	0	0	1	1	-1.1481	110	1	1.1	0.9	0.0000	0.0000	0.0000	0.0000;
	2141	1	0	0	0	0	1	1.00538	-6.8999	110	1	1.1	0.9	0.0000	0.0000	0.0000	0.0000;
	2161	1	0	0	0	0	1	1.00017	-6.4486	110	1	1.1	0.9	0.0000	0.0000	0.0000	0.0000;
	2181	1	0	0	0	0	1	1.0085	-8.3794	110	1	1.1	0.9	0.0000	0.0000	0.0000	0.0000;
	2202	1	0	0	0	0	1	1.01384	-8.3607	220	1	1.1	0.9	0.0000	0.0000	0.0000	0.0000;
	2204	1	0	0	0	0	1	1.02789	-6.6842	380	1	1.1	0.9	0.0000	0.0000	0.0000	0.0000;
	2221	1	0	0	0	0	1	0.99817	-4.5335	110	1	1.1	0.9	0.0000	0.0000	0.0000	0.0000;
	2231	1	0	0	0	0	1	1.00325	-3.0305	110	1	1.1	0.9	0.0000	0.0000	0.0000	0.0000;
	2241	1	0	0	0	0	1	1.00091	-4.9407	110	1	1.1	0.9	0.0000	0.0000	0.0000	0.0000;
	2251	1	0	0	0	0	1	1.01392	-9.8425	110	1	1.1	0.9	0.0000	0.0000	0.0000	0.0000;
	2261	1	0	0	0	0	1	0.99924	-7.7014	110	1	1.1	0.9	0.0000	0.0000	0.0000	0.0000;
	2281	1	0	0	0	0	1	1.02787	-3.9476	110	1	1.1	0.9	0.0000	0.0000	0.0000	0.0000;
	2301	1	0	0	0	0	1	1.00245	-8.5926	110	1	1.1	0.9	0.0000	0.0000	0.0000	0.0000;
	2321	1	0	0	0	0	1	1.00791	1.3377	110	1	1.1	0.9	0.0000	0.0000	0.0000	0.0000;
	2361	1	0	0	0	0	1	1.00324	-5.0336	110	1	1.1	0.9	0.0000	0.0000	0.0000	0.0000;
	2391	1	0	0	0	0	1	1.00167	-4.6367	110	1	1.1	0.9	0.0000	0.0000	0.0000	0.0000;
	2401	1	0	0	0	0	1	1	-5.7384	110	1	1.1	0.9	0.0000	0.0000	0.0000	0.0000;
	2411	1	0	0	0	0	1	1.01054	-7.5202	110	1	1.1	0.9	0.0000	0.0000	0.0000	0.0000;
	2481	1	0	0	0	0	1	1.00185	-8.6914	110	1	1.1	0.9	0.0000	0.0000	0.0000	0.0000;
	2491	1	0	0	0	0	1	1.00192	-8.6864	110	1	1.1	0.9	0.0000	0.0000	0.0000	0.0000;
	2521	1	0	0	0	0	1	1.0138	-3.9524	110	1	1.1	0.9	0.0000	0.0000	0.0000	0.0000;
	2522	1	0	0	0	0	1	1.03661	-3.8253	220	1	1.1	0.9	0.0000	0.0000	0.0000	0.0000;
	2524	1	0	0	0	0	1	1.0538	-3.1095	380	1	1.1	0.9	0.0000	0.0000	0.0000	0.0000;
	2541	1	0	0	0	0	1	1.01923	-10.3634	110	1	1.1	0.9	0.0000	0.0000	0.0000	0.0000;
	2551	1	0	0	0	0	1	1.01062	-10.0097	110	1	1.1	0.9	0.0000	0.0000	0.0000	0.0000;
	2561	1	0	0	0	0	1	1.01722	-9.4426	110	1	1.1	0.9	0.0000	0.0000	0.0000	0.0000;
	2562	1	0	0	0	0	1	1.0136	-8.4077	220	1	1.1	0.9	0.0000	0.0000	0.0000	0.0000;
	2563	1	0	0	0	0	1	1.0136	-8.4077	220	1	1.1	0.9	0.0000	0.0000	0.0000	0.0000;
	2571	1	0	0	0	0	1	1.01347	-9.7469	110	1	1.1	0.9	0.0000	0.0000	0.0000	0.0000;
	2581	1	0	0	0	0	1	1.00484	-9.3643	110	1	1.1	0.9	0.0000	0.0000	0.0000	0.0000;
	2671	1	0	0	0	0	1	1.01265	-1.992	110	1	1.1	0.9	0.0000	0.0000	0.0000	0.0000;
	2681	1	0	0	0	0	1	1.01089	-4.1345	110	1	1.1	0.9	0.0000	0.0000	0.0000	0.0000;
	2701	1	0	0	0	0	1	1.01073	-10.2611	110	1	1.1	0.9	0.0000	0.0000	0.0000	0.0000;
	2721	1	0	0	0	0	1	1.0035	-8.8739	110	1	1.1	0.9	0.0000	0.0000	0.0000	0.0000;
	2731	1	0	0	0	0	1	1.05428	0.1869	110	1	1.1	0.9	0.0000	0.0000	0.0000	0.0000;
	2741	1	0	0	0	0	1	1.01189	-7.4008	110	1	1.1	0.9	0.0000	0.0000	0.0000	0.0000;
	2742	1	0	0	0	0	1	1.01438	-7.0301	220	1	1.1	0.9	0.0000	0.0000	0.0000	0.0000;
	2744	1	0	0	0	0	1	1.02855	-5.9816	380	1	1.1	0.9	0.0000	0.0000	0.0000	0.0000;
	2761	1	0	0	0	0	1	1.01402	-9.8577	110	1	1.1	0.9	0.0000	0.0000	0.0000	0.0000;
	2771	1	0	0	0	0	1	1.05862	-0.5869	110	1	1.1	0.9	0.0000	0.0000	0.0000	0.0000;
	2780	1	0	0	0	0	1	1.01789	-4.3456	110	1	1.1	0.9	0.0000	0.0000	0.0000	0.0000;
	2781	1	0	0	0	0	1	1.01789	-4.3456	110	1	1.1	0.9	0.0000	0.0000	0.0000	0.0000;
	2801	1	0	0	0	0	1	1.00056	0.5534	110	1	1.1	0.9	0.0000	0.0000	0.0000	0.0000;
	2821	1	0	0	0	0	1	0.99485	-4.7163	110	1	1.1	0.9	0.0000	0.0000	0.0000	0.0000;
	2841	1	0	0	0	0	1	1.00867	-8.0559	110	1	1.1	0.9	0.0000	0.0000	0.0000	0.0000;
	2842	1	0	0	0	0	1	1.01348	-7.4432	220	1	1.1	0.9	0.0000	0.0000	0.0000	0.0000;
	2852	1	0	0	0	0	1	0.99283	-3.6278	220	1	1.1	0.9	0.0000	0.0000	0.0000	0.0000;
	2861	1	0	0	0	0	1	0.99762	-11.2851	110	1	1.1	0.9	0.0000	0.0000	0.0000	0.0000;
	2870	1	0	0	0	0	1	1.0011	0.413	110	1	1.1	0.9	0.0000	0.0000	0.0000	0.0000;
	2871	1	0	0	0	0	1	1.0011	0.413	110	1	1.1	0.9	0.0000	0.0000	0.0000	0.0000;
	2881	1	0	0	0	0	1	0.99738	-5.5997	110	1	1.1	0.9	0.0000	0.0000	0.0000	0.0000;
	2941	1	0	0	0	0	1	1.0194	-10.3524	110	1	1.1	0.9	0.0000	0.0000	0.0000	0.0000;
	2951	1	0	0	0	0	1	1.0107	-10.0003	110	1	1.1	0.9	0.0000	0.0000	0.0000	0.0000;
	2962	1	0	0	0	0	1	1.01313	-8.3559	220	1	1.1	0.9	0.0000	0.0000	0.0000	0.0000;
	2972	1	0	0	0	0	1	1.0131	-8.3963	220	1	1.1	0.9	0.0000	0.0000	0.0000	0.0000;
	2981	1	0	0	0	0	1	0.99968	-4.7695	110	1	1.1	0.9	0.0000	0.0000	0.0000	0.0000;
	3061	1	0	0	0	0	1	0.99881	-5.2094	110	1	1.1	0.9	0.0000	0.0000	0.0000	0.0000;
	3081	1	0	0	0	0	1	1.01073	-9.9774	110	1	1.1	0.9	0.0000	0.0000	0.0000	0.0000;
	3082	1	0	0	0	0	1	1.01011	-8.7825	220	1	1.1	0.9	0.0000	0.0000	0.0000	0.0000;
	3091	1	0	0	0	0	1	1.0003	-11.1405	110	1	1.1	0.9	0.0000	0.0000	0.0000	0.0000;
	3101	1	0	0	0	0	1	0.99938	-4.2864	110	1	1.1	0.9	0.0000	0.0000	0.0000	0.0000;
	3122	1	0	0	0	0	1	1.00508	-8.0144	220	1	1.1	0.9	0.0000	0.0000	0.0000	0.0000;
	3190	1	0	0	0	0	1	1.00613	-4.9746	110	1	1.1	0.9	0.0000	0.0000	0.0000	0.0000;
	3191	1	0	0	0	0	1	1.00282	-1.9367	110	1	1.1	0.9	0.0000	0.0000	0.0000	0.0000;
	3192	1	0	0	0	0	1	1.01943	-3.5676	220	1	1.1	0.9	0.0000	0.0000	0.0000	0.0000;
	3194	1	0	0	0	0	1	1.02468	-4.1026	380	1	1.1	0.9	0.0000	0.0000	0.0000	0.0000;
	3200	1	0	0	0	0	1	1.00316	-4.3969	110	1	1.1	0.9	0.0000	0.0000	0.0000	0.0000;
	3201	1	0	0	0	0	1	1.00106	-5.2453	110	1	1.1	0.9	0.0000	0.0000	0.0000	0.0000;
	3202	1	0	0	0	0	1	1.00316	-4.3969	220	1	1.1	0.9	0.0000	0.0000	0.0000	0.0000;
	3203	1	0	0	0	0	1	1.00316	-4.3969	220	1	1.1	0.9	0.0000	0.0000	0.0000	0.0000;
	3204	1	0	0	0	0	1	1.02055	-5.2271	380	1	1.1	0.9	0.0000	0.0000	0.0000	0.0000;
	3209	1	0	0	0	0	1	1.00106	-5.2453	110	1	1.1	0.9	0.0000	0.0000	0.0000	0.0000;
	3211	1	0	0	0	0	1	1.00276	-3.1036	110	1	1.1	0.9	0.0000	0.0000	0.0000	0.0000;
	3221	1	0	0	0	0	1	0.99835	-5.4752	110	1	1.1	0.9	0.0000	0.0000	0.0000	0.0000;
	3241	1	0	0	0	0	1	0.99942	-8.7663	110	1	1.1	0.9	0.0000	0.0000	0.0000	0.0000;
	3251	1	0	0	0	0	1	1.00673	-4.5676	110	1	1.1	0.9	0.0000	0.0000	0.0000	0.0000;
	3261	1	0	0	0	0	1	1.02016	-8.1835	110	1	1.1	0.9	0.0000	0.0000	0.0000	0.0000;
	3281	1	0	0	0	0	1	1.00276	-5.4986	110	1	1.1	0.9	0.0000	0.0000	0.0000	0.0000;
	3282	1	0	0	0	0	1	1.01036	-5.0852	220	1	1.1	0.9	0.0000	0.0000	0.0000	0.0000;
	3301	1	0	0	0	0	1	1.00256	-5.116	110	1	1.1	0.9	0.0000	0.0000	0.0000	0.0000;
	3321	1	0	0	0	0	1	1.00322	-8.3146	110	1	1.1	0.9	0.0000	0.0000	0.0000	0.0000;
	3330	1	0	0	0	0	1	1.00059	-0.6596	110	1	1.1	0.9	0.0000	0.0000	0.0000	0.0000;
	3331	1	0	0	0	0	1	1.00059	-0.6596	110	1	1.1	0.9	0.0000	0.0000	0.0000	0.0000;
	3332	1	0	0	0	0	1	1.00787	-2.1292	220	1	1.1	0.9	0.0000	0.0000	0.0000	0.0000;
	3341	1	0	0	0	0	1	1.03082	-8.0204	110	1	1.1	0.9	0.0000	0.0000	0.0000	0.0000;
	3342	1	0	0	0	0	1	1.01039	-7.8182	220	1	1.1	0.9	0.0000	0.0000	0.0000	0.0000;
	3361	1	0	0	0	0	1	1.00815	1.1669	110	1	1.1	0.9	0.0000	0.0000	0.0000	0.0000;
	3381	1	0	0	0	0	1	0.99923	-7.8624	110	1	1.1	0.9	0.0000	0.0000	0.0000	0.0000;
	3391	1	0	0	0	0	1	1	0.5044	110	1	1.1	0.9	0.0000	0.0000	0.0000	0.0000;
...
];

%%%% branch data
%%	fbus	tbus	r	x	b	rateA	rateB	rateC	ratio	angle	status	angmin	angmax	Pf	Qf	Pt	Qt	mu_Sf	mu_St	mu_angmin	mu_angmax
mpc.branch = [
	11	42404	0.0036	0.00391	0.00207	100	100	110	0	0	1	-360	360	0.0000	0.0000	0.0000	0.0000	0.0000	0.0000	0.0000	0.0000;
	12	25404	0.00534	0.00795	0.00407	9999	9999	10998.9	0	0	1	-360	360	0.0000	0.0000	0.0000	0.0000	0.0000	0.0000	0.0000	0.0000;
	12	25404	0.00594	0.00866	0.00435	9999	9999	10998.9	0	0	1	-360	360	0.0000	0.0000	0.0000	0.0000	0.0000	0.0000	0.0000	0.0000;
	12	46504	0.02132	0.02114	0.00329	9999	9999	10998.9	0	0	1	-360	360	0.0000	0.0000	0.0000	0.0000	0.0000	0.0000	0.0000	0.0000;
	12	46504	0.01937	0.01703	0.00256	9999	9999	10998.9	0	0	1	-360	360	0.0000	0.0000	0.0000	0.0000	0.0000	0.0000	0.0000	0.0000;
	1021	2121	0.0286	0.067	0.0059	105	105	115.5	0	0	1	-360	360	0.0000	0.0000	0.0000	0.0000	0.0000	0.0000	0.0000	0.0000;
	1021	2361	0.0513	0.1172	0.0106	105	105	115.5	0	0	1	-360	360	0.0000	0.0000	0.0000	0.0000	0.0000	0.0000	0.0000	0.0000;
	1021	3541	0.0071	0.037	0.0116	178	178	195.8	0	0	1	-360	360	0.0000	0.0000	0.0000	0.0000	0.0000	0.0000	0.0000	0.0000;
	1021	10210	0	0.0001	0	999	999	1098.9	0	0	1	-360	360	0.0000	0.0000	0.0000	0.0000	0.0000	0.0000	0.0000	0.0000;
	1021	10261	0	0.0001	0	105	105	115.5	0	0	1	-360	360	0.0000	0.0000	0.0000	0.0000	0.0000	0.0000	0.0000	0.0000;
	1041	5481	0.0049	0.0107	0.001	105	105	115.5	0	0	1	-360	360	0.0000	0.0000	0.0000	0.0000	0.0000	0.0000	0.0000	0.0000;
	1042	1052	0	0.0001	0	9999	9999	10998.9	0	0	1	-360	360	0.0000	0.0000	0.0000	0.0000	0.0000	0.0000	0.0000	0.0000;
	1042	1062	0	0.0001	0	593	593	652.3	0	0	1	-360	360	0.0000	0.0000	0.0000	0.0000	0.0000	0.0000	0.0000	0.0000;
	1042	1072	0.0001	0.0006	0.0384	593	593	652.3	0	0	1	-360	360	0.0000	0.0000	0.0000	0.0000	0.0000	0.0000	0.0000	0.0000;
	1042	3202	0.003	0.0222	0.0335	434	434	477.4	0	0	1	-360	360	0.0000	0.0000	0.0000	0.0000	0.0000	0.0000	0.0000	0.0000;
	1042	4722	0.0012	0.0078	0.2591	434	434	477.4	0	0	1	-360	360	0.0000	0.0000	0.0000	0.0000	0.0000	0.0000	0.0000	0.0000;
	1042	35771	0.0001	0.0004	0.0265	593	593	652.3	0	0	1	-360	360	0.0000	0.0000	0.0000	0.0000	0.0000	0.0000	0.0000	0.0000;
	1052	1062	0	0.0001	0	999	999	1098.9	0	0	1	-360	360	0.0000	0.0000	0.0000	0.0000	0.0000	0.0000	0.0000	0.0000;
	1052	2852	0.0002	0.0015	0.1035	593	593	652.3	0	0	1	-360	360	0.0000	0.0000	0.0000	0.0000	0.0000	0.0000	0.0000	0.0000;
	1052	3202	0.003	0.0222	0.0335	434	434	477.4	0	0	1	-360	360	0.0000	0.0000	0.0000	0.0000	0.0000	0.0000	0.0000	0.0000;
	1061	10619	0.0004	0.0008	0.0001	105	105	115.5	0	0	1	-360	360	0.0000	0.0000	0.0000	0.0000	0.0000	0.0000	0.0000	0.0000;
	1062	1072	0	0.0001	0	999	999	1098.9	0	0	1	-360	360	0.0000	0.0000	0.0000	0.0000	0.0000	0.0000	0.0000	0.0000;
	1071	2361	0.0594	0.1314	0.0123	105	105	115.5	0	0	1	-360	360	0.0000	0.0000	0.0000	0.0000	0.0000	0.0000	0.0000	0.0000;
	1071	3211	0.0094	0.0208	0.002	105	105	115.5	0	0	1	-360	360	0.0000	0.0000	0.0000	0.0000	0.0000	0.0000	0.0000	0.0000;
	1071	4941	0.0718	0.1589	0.0148	105	105	115.5	0	0	1	-360	360	0.0000	0.0000	0.0000	0.0000	0.0000	0.0000	0.0000	0.0000;
	1081	32810	0.0039	0.0123	0.0035	68	112	123.2	0	0	1	-360	360	0.0000	0.0000	0.0000	0.0000	0.0000	0.0000	0.0000	0.0000;
	1091	2861	0.0018	0.0038	0.0251	140	140	154	0	0	1	-360	360	0.0000	0.0000	0.0000	0.0000	0.0000	0.0000	0.0000	0.0000;
	1091	2861	0.0018	0.0038	0.0251	140	140	154	0	0	1	-360	360	0.0000	0.0000	0.0000	0.0000	0.0000	0.0000	0.0000	0.0000;
	1101	2161	0.0031	0.0069	0.0006	45	105	115.5	0	0	1	-360	360	0.0000	0.0000	0.0000	0.0000	0.0000	0.0000	0.0000	0.0000;
	1121	1301	0.0102	0.0787	0.0071	136	136	149.6	0	0	1	-360	360	0.0000	0.0000	0.0000	0.0000	0.0000	0.0000	0.0000	0.0000;
	1121	1541	0.0207	0.0952	0.0102	137	178	195.8	0	0	1	-360	360	0.0000	0.0000	0.0000	0.0000	0.0000	0.0000	0.0000	0.0000;
	1121	4901	0.0035	0.0077	0.0008	34	34	37.4	0	0	1	-360	360	0.0000	0.0000	0.0000	0.0000	0.0000	0.0000	0.0000	0.0000;
	1122	1742	0.0062	0.0462	0.0697	434	434	477.4	0	0	1	-360	360	0.0000	0.0000	0.0000	0.0000	0.0000	0.0000	0.0000	0.0000;
	1122	3642	0.0046	0.0338	0.051	434	434	477.4	0	0	1	-360	360	0.0000	0.0000	0.0000	0.0000	0.0000	0.0000	0.0000	0.0000;
	1131	1151	0	0.0001	0	178	178	195.8	0	0	1	-360	360	0.0000	0.0000	0.0000	0.0000	0.0000	0.0000	0.0000	0.0000;
	1131	2131	0.005	0.0105	0.0703	140	140	154	0	0	1	-360	360	0.0000	0.0000	0.0000	0.0000	0.0000	0.0000	0.0000	0.0000;
	1131	31911	0.0057	0.0293	0.0032	178	178	195.8	0	0	1	-360	360	0.0000	0.0000	0.0000	0.0000	0.0000	0.0000	0.0000	0.0000;
	1141	1911	0.0016	0.0034	0.0226	140	140	154	0	0	1	-360	360	0.0000	0.0000	0.0000	0.0000	0.0000	0.0000	0.0000	0.0000;
	1141	3501	0.054	0.123	0.0116	105	105	115.5	0	0	1	-360	360	0.0000	0.0000	0.0000	0.0000	0.0000	0.0000	0.0000	0.0000;
	1141	4941	0.0135	0.0696	0.0113	137	178	195.8	0	0	1	-360	360	0.0000	0.0000	0.0000	0.0000	0.0000	0.0000	0.0000	0.0000;
	1141	11461	0	0.0001	0	105	105	115.5	0	0	1	-360	360	0.0000	0.0000	0.0000	0.0000	0.0000	0.0000	0.0000	0.0000;
	1161	1781	0.001	0.002	0.0011	96	96	105.6	0	0	1	-360	360	0.0000	0.0000	0.0000	0.0000	0.0000	0.0000	0.0000	0.0000;
	1161	3461	0.0207	0.1067	0.0116	178	178	195.8	0	0	1	-360	360	0.0000	0.0000	0.0000	0.0000	0.0000	0.0000	0.0000	0.0000;
	1161	3901	0.0173	0.0894	0.0097	178	178	195.8	0	0	1	-360	360	0.0000	0.0000	0.0000	0.0000	0.0000	0.0000	0.0000	0.0000;
	1161	5051	0.0006	0.0012	0.0061	120	120	132	0	0	1	-360	360	0.0000	0.0000	0.0000	0.0000	0.0000	0.0000	0.0000	0.0000;
	1161	5071	0.0006	0.0012	0.0061	120	120	132	0	0	1	-360	360	0.0000	0.0000	0.0000	0.0000	0.0000	0.0000	0.0000	0.0000;
	1161	17810	0.001	0.0021	0.0012	96	96	105.6	0	0	1	-360	360	0.0000	0.0000	0.0000	0.0000	0.0000	0.0000	0.0000	0.0000;
	1181	1861	0.0644	0.1424	0.0133	105	105	115.5	0	0	1	-360	360	0.0000	0.0000	0.0000	0.0000	0.0000	0.0000	0.0000	0.0000;
	1181	2821	0.0193	0.0994	0.0108	178	178	195.8	0	0	1	-360	360	0.0000	0.0000	0.0000	0.0000	0.0000	0.0000	0.0000	0.0000;
	1181	4221	0.0381	0.1969	0.0214	120	120	132	0	0	1	-360	360	0.0000	0.0000	0.0000	0.0000	0.0000	0.0000	0.0000	0.0000;
	1181	4961	0.0292	0.0645	0.006	80	80	88	0	0	1	-360	360	0.0000	0.0000	0.0000	0.0000	0.0000	0.0000	0.0000	0.0000;
	1181	4961	0.0148	0.0763	0.0097	178	178	195.8	0	0	1	-360	360	0.0000	0.0000	0.0000	0.0000	0.0000	0.0000	0.0000	0.0000;
	1201	2561	0.0047	0.0101	0.0548	120	120	132	0	0	1	-360	360	0.0000	0.0000	0.0000	0.0000	0.0000	0.0000	0.0000	0.0000;
	1201	3781	0.0026	0.0055	0.0298	120	120	132	0	0	1	-360	360	0.0000	0.0000	0.0000	0.0000	0.0000	0.0000	0.0000	0.0000;
	1211	2771	0.0044	0.0228	0.0025	178	178	195.8	0	0	1	-360	360	0.0000	0.0000	0.0000	0.0000	0.0000	0.0000	0.0000	0.0000;
	1211	12111	0	0.0001	0	178	178	195.8	0	0	1	-360	360	0.0000	0.0000	0.0000	0.0000	0.0000	0.0000	0.0000	0.0000;
	1212	1602	0.0025	0.0158	0.025	761	761	837.1	0	0	1	-360	360	0.0000	0.0000	0.0000	0.0000	0.0000	0.0000	0.0000	0.0000;
	1212	3332	0.002	0.0124	0.0197	761	761	837.1	0	0	1	-360	360	0.0000	0.0000	0.0000	0.0000	0.0000	0.0000	0.0000	0.0000;
	1221	1901	0.0389	0.086	0.008	105	105	115.5	0	0	1	-360	360	0.0000	0.0000	0.0000	0.0000	0.0000	0.0000	0.0000	0.0000;
	1221	3551	0.0318	0.075	0.0072	105	105	115.5	0	0	1	-360	360	0.0000	0.0000	0.0000	0.0000	0.0000	0.0000	0.0000	0.0000;
	1231	1841	0.0111	0.03	0.1366	68	116	127.6	0	0	1	-360	360	0.0000	0.0000	0.0000	0.0000	0.0000	0.0000	0.0000	0.0000;
	1251	2361	0.0151	0.078	0.0085	178	178	195.8	0	0	1	-360	360	0.0000	0.0000	0.0000	0.0000	0.0000	0.0000	0.0000	0.0000;
	1251	52219	0.0124	0.0637	0.0069	178	178	195.8	0	0	1	-360	360	0.0000	0.0000	0.0000	0.0000	0.0000	0.0000	0.0000	0.0000;
	1271	2041	0.0106	0.0546	0.006	178	178	195.8	0	0	1	-360	360	0.0000	0.0000	0.0000	0.0000	0.0000	0.0000	0.0000	0.0000;
	1271	2181	0.0126	0.065	0.0071	178	178	195.8	0	0	1	-360	360	0.0000	0.0000	0.0000	0.0000	0.0000	0.0000	0.0000	0.0000;
	1281	2221	0.0426	0.0943	0.0098	68	105	115.5	0	0	1	-360	360	0.0000	0.0000	0.0000	0.0000	0.0000	0.0000	0.0000	0.0000;
	1301	17411	0.0148	0.1159	0.0104	136	136	149.6	0	0	1	-360	360	0.0000	0.0000	0.0000	0.0000	0.0000	0.0000	0.0000	0.0000;
	1311	3331	0.0052	0.0267	0.0029	178	178	195.8	0	0	1	-360	360	0.0000	0.0000	0.0000	0.0000	0.0000	0.0000	0.0000	0.0000;
	1321	13219	0.0006	0.0017	0.0002	136	136	149.6	0	0	1	-360	360	0.0000	0.0000	0.0000	0.0000	0.0000	0.0000	0.0000	0.0000;
	1341	1701	0.0533	0.1178	0.011	105	105	115.5	0	0	1	-360	360	0.0000	0.0000	0.0000	0.0000	0.0000	0.0000	0.0000	0.0000;
	1341	5191	0.023	0.0734	0.0075	136	136	149.6	0	0	1	-360	360	0.0000	0.0000	0.0000	0.0000	0.0000	0.0000	0.0000	0.0000;
	1351	4081	0.0121	0.0367	0.031	120	120	132	0	0	1	-360	360	0.0000	0.0000	0.0000	0.0000	0.0000	0.0000	0.0000	0.0000;
	1351	4201	0.0073	0.0214	0.0295	120	120	132	0	0	1	-360	360	0.0000	0.0000	0.0000	0.0000	0.0000	0.0000	0.0000	0.0000;
	1361	2001	0.0312	0.0751	0.0073	187	187	205.7	0	0	1	-360	360	0.0000	0.0000	0.0000	0.0000	0.0000	0.0000	0.0000	0.0000;
	1361	2161	0.0071	0.0368	0.004	178	178	195.8	0	0	1	-360	360	0.0000	0.0000	0.0000	0.0000	0.0000	0.0000	0.0000	0.0000;
	1381	1391	0	0.0001	0	136	136	149.6	0	0	1	-360	360	0.0000	0.0000	0.0000	0.0000	0.0000	0.0000	0.0000	0.0000;
	1381	4721	0.0027	0.0059	0.0006	63	63	69.3	0	0	1	-360	360	0.0000	0.0000	0.0000	0.0000	0.0000	0.0000	0.0000	0.0000;
	1391	4731	0.0021	0.0061	0.0007	105	105	115.5	0	0	1	-360	360	0.0000	0.0000	0.0000	0.0000	0.0000	0.0000	0.0000	0.0000;
	1400	14013	0	0.0001	0	999	999	1098.9	0	0	1	-360	360	0.0000	0.0000	0.0000	0.0000	0.0000	0.0000	0.0000	0.0000;
	1400	14015	0.0021	0.0108	0.0012	178	178	195.8	0	0	1	-360	360	0.0000	0.0000	0.0000	0.0000	0.0000	0.0000	0.0000	0.0000;
	1400	14016	0.0021	0.0108	0.0012	178	178	195.8	0	0	1	-360	360	0.0000	0.0000	0.0000	0.0000	0.0000	0.0000	0.0000	0.0000;
	1400	14017	0.0021	0.0108	0.0012	178	178	195.8	0	0	1	-360	360	0.0000	0.0000	0.0000	0.0000	0.0000	0.0000	0.0000	0.0000;
	1400	14018	0.0242	0.1251	0.0136	178	178	195.8	0	0	1	-360	360	0.0000	0.0000	0.0000	0.0000	0.0000	0.0000	0.0000	0.0000;
	1401	1661	0.0235	0.1215	0.0132	178	178	195.8	0	0	1	-360	360	0.0000	0.0000	0.0000	0.0000	0.0000	0.0000	0.0000	0.0000;
	1401	4041	0.042	0.0929	0.0087	99	99	108.9	0	0	1	-360	360	0.0000	0.0000	0.0000	0.0000	0.0000	0.0000	0.0000	0.0000;
	1401	14010	0	0.0001	0	999	999	1098.9	0	0	1	-360	360	0.0000	0.0000	0.0000	0.0000	0.0000	0.0000	0.0000	0.0000;
	1401	14061	0	0.001	0	105	105	115.5	0	0	1	-360	360	0.0000	0.0000	0.0000	0.0000	0.0000	0.0000	0.0000	0.0000;
	1404	2524	0.0024	0.0274	0.6208	1577	1577	1734.7	0	0	1	-360	360	0.0000	0.0000	0.0000	0.0000	0.0000	0.0000	0.0000	0.0000;
	1421	4511	0.002	0.0041	0.092	119	119	130.9	0	0	1	-360	360	0.0000	0.0000	0.0000	0.0000	0.0000	0.0000	0.0000	0.0000;
	1421	4651	0.003	0.006	0.1362	119	119	130.9	0	0	1	-360	360	0.0000	0.0000	0.0000	0.0000	0.0000	0.0000	0.0000	0.0000;
	1431	3261	0.0139	0.0715	0.0078	178	178	195.8	0	0	1	-360	360	0.0000	0.0000	0.0000	0.0000	0.0000	0.0000	0.0000	0.0000;
	1431	3551	0.0176	0.091	0.0099	178	178	195.8	0	0	1	-360	360	0.0000	0.0000	0.0000	0.0000	0.0000	0.0000	0.0000	0.0000;
	1441	1501	0.004	0.009	0.0009	68	105	115.5	0	0	1	-360	360	0.0000	0.0000	0.0000	0.0000	0.0000	0.0000	0.0000	0.0000;
	1441	2221	0.0402	0.089	0.0083	105	105	115.5	0	0	1	-360	360	0.0000	0.0000	0.0000	0.0000	0.0000	0.0000	0.0000	0.0000;
	1441	4731	0.0413	0.0914	0.0115	105	105	115.5	0	0	1	-360	360	0.0000	0.0000	0.0000	0.0000	0.0000	0.0000	0.0000	0.0000;
	1441	14461	0	0.0001	0	105	105	115.5	0	0	1	-360	360	0.0000	0.0000	0.0000	0.0000	0.0000	0.0000	0.0000	0.0000;
	1441	15010	0.0039	0.0086	0.0008	68	105	115.5	0	0	1	-360	360	0.0000	0.0000	0.0000	0.0000	0.0000	0.0000	0.0000	0.0000;
	1451	2581	0.0049	0.0156	0.0084	136	136	149.6	0	0	1	-360	360	0.0000	0.0000	0.0000	0.0000	0.0000	0.0000	0.0000	0.0000;
	1451	3761	0.0034	0.0109	0.0039	120	120	132	0	0	1	-360	360	0.0000	0.0000	0.0000	0.0000	0.0000	0.0000	0.0000	0.0000;
	1461	1721	0.0664	0.1525	0.0144	105	105	115.5	0	0	1	-360	360	0.0000	0.0000	0.0000	0.0000	0.0000	0.0000	0.0000	0.0000;
	1461	3201	0.0204	0.0656	0.0067	136	136	149.6	0	0	1	-360	360	0.0000	0.0000	0.0000	0.0000	0.0000	0.0000	0.0000	0.0000;
	1471	2761	0.0025	0.0053	0.0309	140	140	154	0	0	1	-360	360	0.0000	0.0000	0.0000	0.0000	0.0000	0.0000	0.0000	0.0000;
	1471	3421	0.0023	0.005	0.0291	140	140	154	0	0	1	-360	360	0.0000	0.0000	0.0000	0.0000	0.0000	0.0000	0.0000	0.0000;
	1472	2562	0.0006	0.0067	0.4653	593	593	652.3	0	0	1	-360	360	0.0000	0.0000	0.0000	0.0000	0.0000	0.0000	0.0000	0.0000;
	1481	2001	0.0073	0.0376	0.0041	178	178	195.8	0	0	1	-360	360	0.0000	0.0000	0.0000	0.0000	0.0000	0.0000	0.0000	0.0000;
	1481	3401	0.0017	0.0088	0.001	178	178	195.8	0	0	1	-360	360	0.0000	0.0000	0.0000	0.0000	0.0000	0.0000	0.0000	0.0000;
	1492	3522	0.0001	0.0006	0.0411	593	593	652.3	0	0	1	-360	360	0.0000	0.0000	0.0000	0.0000	0.0000	0.0000	0.0000	0.0000;
	1511	52610	0.0083	0.0426	0.0047	178	178	195.8	0	0	1	-360	360	0.0000	0.0000	0.0000	0.0000	0.0000	0.0000	0.0000	0.0000;
	1541	1841	0.0179	0.0811	0.0087	137	178	195.8	0	0	1	-360	360	0.0000	0.0000	0.0000	0.0000	0.0000	0.0000	0.0000	0.0000;
	1551	16011	0.008	0.0395	0.0394	178	178	195.8	0	0	1	-360	360	0.0000	0.0000	0.0000	0.0000	0.0000	0.0000	0.0000	0.0000;
	1571	5191	0.0544	0.1204	0.0112	105	105	115.5	0	0	1	-360	360	0.0000	0.0000	0.0000	0.0000	0.0000	0.0000	0.0000	0.0000;
	1581	4491	0.0024	0.0072	0.0053	80	80	88	0	0	1	-360	360	0.0000	0.0000	0.0000	0.0000	0.0000	0.0000	0.0000	0.0000;
	1581	5521	0.0025	0.0053	0.0286	120	120	132	0	0	1	-360	360	0.0000	0.0000	0.0000	0.0000	0.0000	0.0000	0.0000	0.0000;
	1601	1611	0.0188	0.0968	0.0105	178	178	195.8	0	0	1	-360	360	0.0000	0.0000	0.0000	0.0000	0.0000	0.0000	0.0000	0.0000;
	1601	2221	0.022	0.1137	0.0124	178	178	195.8	0	0	1	-360	360	0.0000	0.0000	0.0000	0.0000	0.0000	0.0000	0.0000	0.0000;
	1601	3881	0.0036	0.0184	0.002	178	178	195.8	0	0	1	-360	360	0.0000	0.0000	0.0000	0.0000	0.0000	0.0000	0.0000	0.0000;
	1601	16011	0	0.0001	0	178	178	195.8	0	0	1	-360	360	0.0000	0.0000	0.0000	0.0000	0.0000	0.0000	0.0000	0.0000;
	1602	3202	0.0062	0.0385	0.0612	548	761	837.1	0	0	1	-360	360	0.0000	0.0000	0.0000	0.0000	0.0000	0.0000	0.0000	0.0000;
	1611	3301	0.0128	0.066	0.0072	178	178	195.8	0	0	1	-360	360	0.0000	0.0000	0.0000	0.0000	0.0000	0.0000	0.0000	0.0000;
	1611	16110	0	0.001	0	999	999	1098.9	0	0	1	-360	360	0.0000	0.0000	0.0000	0.0000	0.0000	0.0000	0.0000	0.0000;
	1621	3061	0.0018	0.0089	0.001	178	178	195.8	0	0	1	-360	360	0.0000	0.0000	0.0000	0.0000	0.0000	0.0000	0.0000	0.0000;
	1621	3221	0.0094	0.0468	0.0054	178	178	195.8	0	0	1	-360	360	0.0000	0.0000	0.0000	0.0000	0.0000	0.0000	0.0000	0.0000;
	1631	2671	0.0046	0.0238	0.0026	91	178	195.8	0	0	1	-360	360	0.0000	0.0000	0.0000	0.0000	0.0000	0.0000	0.0000	0.0000;
	1631	5041	0.0197	0.0435	0.0041	105	105	115.5	0	0	1	-360	360	0.0000	0.0000	0.0000	0.0000	0.0000	0.0000	0.0000	0.0000;
	1631	10619	0.0143	0.0457	0.0047	136	136	149.6	0	0	1	-360	360	0.0000	0.0000	0.0000	0.0000	0.0000	0.0000	0.0000	0.0000;
	1641	1821	0.0144	0.0741	0.0081	161	161	177.1	0	0	1	-360	360	0.0000	0.0000	0.0000	0.0000	0.0000	0.0000	0.0000	0.0000;
	1641	2281	0.0809	0.1788	0.0167	105	105	115.5	0	0	1	-360	360	0.0000	0.0000	0.0000	0.0000	0.0000	0.0000	0.0000	0.0000;
	1641	2361	0.0336	0.1737	0.0189	120	120	132	0	0	1	-360	360	0.0000	0.0000	0.0000	0.0000	0.0000	0.0000	0.0000	0.0000;
	1641	2781	0.0214	0.0474	0.0044	105	105	115.5	0	0	1	-360	360	0.0000	0.0000	0.0000	0.0000	0.0000	0.0000	0.0000	0.0000;
	1641	2781	0.0176	0.0388	0.0036	105	105	115.5	0	0	1	-360	360	0.0000	0.0000	0.0000	0.0000	0.0000	0.0000	0.0000	0.0000;
	1641	2781	0.0176	0.0388	0.0036	105	105	115.5	0	0	1	-360	360	0.0000	0.0000	0.0000	0.0000	0.0000	0.0000	0.0000	0.0000;
	1641	4951	0.0331	0.0727	0.0672	105	105	115.5	0	0	1	-360	360	0.0000	0.0000	0.0000	0.0000	0.0000	0.0000	0.0000	0.0000;
	1641	16411	0	0.0001	0	105	105	115.5	0	0	1	-360	360	0.0000	0.0000	0.0000	0.0000	0.0000	0.0000	0.0000	0.0000;
	1641	16461	0	0.0001	0	105	105	115.5	0	0	1	-360	360	0.0000	0.0000	0.0000	0.0000	0.0000	0.0000	0.0000	0.0000;
	1641	16462	0	0.0001	0	999	999	1098.9	0	0	1	-360	360	0.0000	0.0000	0.0000	0.0000	0.0000	0.0000	0.0000	0.0000;
	1641	50019	0.0698	0.1544	0.0144	105	105	115.5	0	0	1	-360	360	0.0000	0.0000	0.0000	0.0000	0.0000	0.0000	0.0000	0.0000;
	1642	2522	0.0103	0.0763	0.1152	405	405	445.5	0	0	1	-360	360	0.0000	0.0000	0.0000	0.0000	0.0000	0.0000	0.0000	0.0000;
	1642	4522	0.0103	0.0767	0.1158	434	434	477.4	0	0	1	-360	360	0.0000	0.0000	0.0000	0.0000	0.0000	0.0000	0.0000	0.0000;
	1642	5172	0.0046	0.0289	0.0459	730	761	837.1	0	0	1	-360	360	0.0000	0.0000	0.0000	0.0000	0.0000	0.0000	0.0000	0.0000;
	1651	5261	0.014	0.031	0.0029	105	105	115.5	0	0	1	-360	360	0.0000	0.0000	0.0000	0.0000	0.0000	0.0000	0.0000	0.0000;
	1651	5281	0.0199	0.0445	0.0251	105	105	115.5	0	0	1	-360	360	0.0000	0.0000	0.0000	0.0000	0.0000	0.0000	0.0000	0.0000;
	1661	1821	0.0893	0.1978	0.0195	105	105	115.5	0	0	1	-360	360	0.0000	0.0000	0.0000	0.0000	0.0000	0.0000	0.0000	0.0000;
	1661	1951	0.0375	0.0825	0.0518	99	99	108.9	0	0	1	-360	360	0.0000	0.0000	0.0000	0.0000	0.0000	0.0000	0.0000	0.0000;
	1661	2281	0.0432	0.0955	0.0089	93	105	115.5	0	0	1	-360	360	0.0000	0.0000	0.0000	0.0000	0.0000	0.0000	0.0000	0.0000;
	1661	16661	0	0.0001	0	105	105	115.5	0	0	1	-360	360	0.0000	0.0000	0.0000	0.0000	0.0000	0.0000	0.0000	0.0000;
	1661	16662	0	0.01	0	9999	9999	10998.9	0	0	1	-360	360	0.0000	0.0000	0.0000	0.0000	0.0000	0.0000	0.0000	0.0000;
	1681	2011	0.00032	0.00016	0	190	190	209	0	0	1	-360	360	0.0000	0.0000	0.0000	0.0000	0.0000	0.0000	0.0000	0.0000;
	1681	3881	0.0016	0.0079	0.0009	137	178	195.8	0	0	1	-360	360	0.0000	0.0000	0.0000	0.0000	0.0000	0.0000	0.0000	0.0000;
	1681	32210	0.0202	0.1043	0.0113	178	178	195.8	0	0	1	-360	360	0.0000	0.0000	0.0000	0.0000	0.0000	0.0000	0.0000	0.0000;
	1691	5131	0.0029	0.0056	0.0725	100	100	110	0	0	1	-360	360	0.0000	0.0000	0.0000	0.0000	0.0000	0.0000	0.0000	0.0000;
	1691	51319	0.0018	0.0037	0.0247	100	100	110	0	0	1	-360	360	0.0000	0.0000	0.0000	0.0000	0.0000	0.0000	0.0000	0.0000;
	1701	1761	0.0058	0.0184	0.0019	68	136	149.6	0	0	1	-360	360	0.0000	0.0000	0.0000	0.0000	0.0000	0.0000	0.0000	0.0000;
	1701	1981	0.0385	0.1992	0.0216	178	178	195.8	0	0	1	-360	360	0.0000	0.0000	0.0000	0.0000	0.0000	0.0000	0.0000	0.0000;
	1701	5041	0.0649	0.1787	0.021	187	187	205.7	0	0	1	-360	360	0.0000	0.0000	0.0000	0.0000	0.0000	0.0000	0.0000	0.0000;
	1701	17010	0	0.0001	0	999	999	1098.9	0	0	1	-360	360	0.0000	0.0000	0.0000	0.0000	0.0000	0.0000	0.0000	0.0000;
	1701	17061	0	0.001	0	105	105	115.5	0	0	1	-360	360	0.0000	0.0000	0.0000	0.0000	0.0000	0.0000	0.0000	0.0000;
	1701	28712	0.0285	0.073	0.0067	187	187	205.7	0	0	1	-360	360	0.0000	0.0000	0.0000	0.0000	0.0000	0.0000	0.0000	0.0000;
	1711	3421	0.001	0.0021	0.0136	140	140	154	0	0	1	-360	360	0.0000	0.0000	0.0000	0.0000	0.0000	0.0000	0.0000	0.0000;
	1721	2161	0.0099	0.0511	0.0056	178	178	195.8	0	0	1	-360	360	0.0000	0.0000	0.0000	0.0000	0.0000	0.0000	0.0000	0.0000;
	1721	2391	0.0128	0.0659	0.0327	178	178	195.8	0	0	1	-360	360	0.0000	0.0000	0.0000	0.0000	0.0000	0.0000	0.0000	0.0000;
	1721	4911	0.00151	0.00547	0.03492	118	118	129.8	0	0	1	-360	360	0.0000	0.0000	0.0000	0.0000	0.0000	0.0000	0.0000	0.0000;
	1721	5381	0.0114	0.0589	0.0064	178	178	195.8	0	0	1	-360	360	0.0000	0.0000	0.0000	0.0000	0.0000	0.0000	0.0000	0.0000;
	1721	17261	0	0.0001	0	105	105	115.5	0	0	1	-360	360	0.0000	0.0000	0.0000	0.0000	0.0000	0.0000	0.0000	0.0000;
	1731	3421	0.001	0.0021	0.0136	140	140	154	0	0	1	-360	360	0.0000	0.0000	0.0000	0.0000	0.0000	0.0000	0.0000	0.0000;
	1741	1851	0.0038	0.0081	0.0295	105	105	115.5	0	0	1	-360	360	0.0000	0.0000	0.0000	0.0000	0.0000	0.0000	0.0000	0.0000;
	1741	4511	0.0013	0.0025	0.0566	119	119	130.9	0	0	1	-360	360	0.0000	0.0000	0.0000	0.0000	0.0000	0.0000	0.0000	0.0000;
	1741	17411	0	0.0001	0	178	178	195.8	0	0	1	-360	360	0.0000	0.0000	0.0000	0.0000	0.0000	0.0000	0.0000	0.0000;
	1741	51319	0.0002	0.0004	0.0001	136	136	149.6	0	0	1	-360	360	0.0000	0.0000	0.0000	0.0000	0.0000	0.0000	0.0000	0.0000;
	1742	2202	0.0049	0.0361	0.0544	434	434	477.4	0	0	1	-360	360	0.0000	0.0000	0.0000	0.0000	0.0000	0.0000	0.0000	0.0000;
	1742	3122	0.0004	0.0045	0.3148	593	593	652.3	0	0	1	-360	360	0.0000	0.0000	0.0000	0.0000	0.0000	0.0000	0.0000	0.0000;
	1742	17431	0	0.0001	0	434	434	477.4	0	0	1	-360	360	0.0000	0.0000	0.0000	0.0000	0.0000	0.0000	0.0000	0.0000;
	1742	17462	0	0.0001	0	434	434	477.4	0	0	1	-360	360	0.0000	0.0000	0.0000	0.0000	0.0000	0.0000	0.0000	0.0000;
	1791	4201	0.0097	0.031	0.0032	136	136	149.6	0	0	1	-360	360	0.0000	0.0000	0.0000	0.0000	0.0000	0.0000	0.0000	0.0000;
	1791	4481	0.03	0.0665	0.0062	105	105	115.5	0	0	1	-360	360	0.0000	0.0000	0.0000	0.0000	0.0000	0.0000	0.0000	0.0000;
	1801	4111	0.0136	0.045	0.0272	130	130	143	0	0	1	-360	360	0.0000	0.0000	0.0000	0.0000	0.0000	0.0000	0.0000	0.0000;
	1801	17411	0.0134	0.0417	0.0604	130	130	143	0	0	1	-360	360	0.0000	0.0000	0.0000	0.0000	0.0000	0.0000	0.0000	0.0000;
	1821	3501	0.0951	0.2216	0.021	99	99	108.9	0	0	1	-360	360	0.0000	0.0000	0.0000	0.0000	0.0000	0.0000	0.0000	0.0000;
	1831	2091	0.0271	0.0868	0.0089	136	136	149.6	0	0	1	-360	360	0.0000	0.0000	0.0000	0.0000	0.0000	0.0000	0.0000	0.0000;
	1841	3641	0.0051	0.026	0.0029	178	178	195.8	0	0	1	-360	360	0.0000	0.0000	0.0000	0.0000	0.0000	0.0000	0.0000	0.0000;
	1841	5501	0.0222	0.0711	0.0073	136	136	149.6	0	0	1	-360	360	0.0000	0.0000	0.0000	0.0000	0.0000	0.0000	0.0000	0.0000;
	1851	24819	0.0035	0.0076	0.0008	105	105	115.5	0	0	1	-360	360	0.0000	0.0000	0.0000	0.0000	0.0000	0.0000	0.0000	0.0000;
	1861	2521	0.0053	0.0117	0.0011	99	99	108.9	0	0	1	-360	360	0.0000	0.0000	0.0000	0.0000	0.0000	0.0000	0.0000	0.0000;
	1861	2521	0.0052	0.0114	0.0011	99	99	108.9	0	0	1	-360	360	0.0000	0.0000	0.0000	0.0000	0.0000	0.0000	0.0000	0.0000;
	1861	10619	0.0216	0.0691	0.0071	136	136	149.6	0	0	1	-360	360	0.0000	0.0000	0.0000	0.0000	0.0000	0.0000	0.0000	0.0000;
	1871	2581	0.0034	0.0127	0.0382	99	99	108.9	0	0	1	-360	360	0.0000	0.0000	0.0000	0.0000	0.0000	0.0000	0.0000	0.0000;
	1871	20411	0.0009	0.0043	0.0196	130	130	143	0	0	1	-360	360	0.0000	0.0000	0.0000	0.0000	0.0000	0.0000	0.0000	0.0000;
	1881	2881	0.0467	0.1032	0.0096	105	105	115.5	0	0	1	-360	360	0.0000	0.0000	0.0000	0.0000	0.0000	0.0000	0.0000	0.0000;
	1881	3281	0.0385	0.1231	0.0126	136	136	149.6	0	0	1	-360	360	0.0000	0.0000	0.0000	0.0000	0.0000	0.0000	0.0000	0.0000;
	1881	4021	0.0142	0.0731	0.008	178	178	195.8	0	0	1	-360	360	0.0000	0.0000	0.0000	0.0000	0.0000	0.0000	0.0000	0.0000;
	1891	2041	0.0232	0.1199	0.013	178	178	195.8	0	0	1	-360	360	0.0000	0.0000	0.0000	0.0000	0.0000	0.0000	0.0000	0.0000;
	1891	4501	0.0006	0.003	0.0004	178	178	195.8	0	0	1	-360	360	0.0000	0.0000	0.0000	0.0000	0.0000	0.0000	0.0000	0.0000;
	1901	3341	0.0084	0.0186	0.0018	105	105	115.5	0	0	1	-360	360	0.0000	0.0000	0.0000	0.0000	0.0000	0.0000	0.0000	0.0000;
	1901	3341	0.0082	0.0186	0.0017	105	105	115.5	0	0	1	-360	360	0.0000	0.0000	0.0000	0.0000	0.0000	0.0000	0.0000	0.0000;
	1901	50619	0.0274	0.0606	0.0057	68	105	115.5	0	0	1	-360	360	0.0000	0.0000	0.0000	0.0000	0.0000	0.0000	0.0000	0.0000;
	1921	1961	0.0245	0.0543	0.0182	105	105	115.5	0	0	1	-360	360	0.0000	0.0000	0.0000	0.0000	0.0000	0.0000	0.0000	0.0000;
	1921	4341	0.0035	0.0079	0.0008	31	105	115.5	0	0	1	-360	360	0.0000	0.0000	0.0000	0.0000	0.0000	0.0000	0.0000	0.0000;
	1921	4351	0.0033	0.0076	0.0007	31	105	115.5	0	0	1	-360	360	0.0000	0.0000	0.0000	0.0000	0.0000	0.0000	0.0000	0.0000;
	1921	4721	0.01	0.0236	0.0033	105	105	115.5	0	0	1	-360	360	0.0000	0.0000	0.0000	0.0000	0.0000	0.0000	0.0000	0.0000;
	1921	5481	0.0272	0.0615	0.0058	105	105	115.5	0	0	1	-360	360	0.0000	0.0000	0.0000	0.0000	0.0000	0.0000	0.0000	0.0000;
	1931	4371	0.0176	0.0907	0.0099	178	178	195.8	0	0	1	-360	360	0.0000	0.0000	0.0000	0.0000	0.0000	0.0000	0.0000	0.0000;
...
];

%%%% generator data
%%	bus	Pg	Qg	Qmax	Qmin	Vg	mBase	status	Pmax	Pmin	mu_Pmax	mu_Pmin	mu_Qmax	mu_Qmin
mpc.gen = [
	10271	21	0	15	-7	1	34	0	21	5	0	0	0	0;
	10272	22	0	15	-7	1	34	0	22	5	0	0	0	0;
	10273	19	0	15	-7	1	34	0	19	5	0	0	0	0;
	10274	24	0	15	-7	1	34	0	24	5	0	0	0	0;
	10275	2.25	0	0	0	1.04	8.35	1	7.5	0	0	0	0	0;
	10276	0.198	0	0	0	1.04	0.85	1	0.66	0	0	0	0	0;
	10470	222	-66.349	270	-170	1	500	0	443	222	0	0	0	0;
	10471	270	0	159	-75	1	318.8	0	270	40	0	0	0	0;
	10472	90	0	60	-30	1	100.9	0	90	13	0	0	0	0;
	10473	90	0	60	-30	1	100.9	0	90	13	0	0	0	0;
	10474	90	0	60	-30	1	100.9	0	90	13	0	0	0	0;
	10671	1.44	-1.94	-1.94	-1.94	1.04	4.8	1	4.8	0	0	0	0	0;
	10672	1.5	-2	-2	-2	1.04	6	1	5	0	0	0	0	0;
	10673	0.36	-0.48	-0.48	-0.48	1.04	1.2	1	1.2	0	0	0	0	0;
	10674	1.38	-1.77	-1.77	-2.3	1.04	4.6	1	4.6	0	0	0	0	0;
	11204	1	0	0	0	1	1.6	0	1	0	0	0	0	0;
	11271	7.56	0	0	0	1.04	28	1	25.2	0	0	0	0	0;
	11370	6.6	-2.905	5.59	-5.59	1	30	1	22	0	0	0	0	0;
	11371	15.3	-10.194	20	-20	1	66	1	51	0	0	0	0	0;
	11374	1.2	-0.632	1.31	-1.31	1	4	1	4	0	0	0	0	0;
	11375	1.08	-0.571	1.18	-1.18	1	4	1	3.6	0	0	0	0	0;
	12371	9.45	-7	7	-7	1	32	1	31.5	0	0	0	0	0;
	12372	3.15	0	0	0	1	10	1	10.5	0	0	0	0	0;
	12571	5.835	0	0	0	1	25.05	1	19.45	0	0	0	0	0;
	12572	0.9	-0.99	0.99	-0.99	1	3.34	1	3	0	0	0	0	0;
	12573	2.7	-2.96	2.96	-2.96	1	10.02	1	9	0	0	0	0	0;
	12871	0.69	-0.66	0	-0.66	1	2.3	1	2.3	0	0	0	0	0;
	12872	2.52	-2.76	0	-2.76	1	9.2	1	8.4	0	0	0	0	0;
	12873	5.865	0	0	0	1	20.7	1	19.55	0	0	0	0	0;
	12874	2.55	0	0	0	1	8.5	1	8.5	0	0	0	0	0;
	13170	7.185	0	0	0	1	25.3	1	23.95	0	0	0	0	0;
	13171	3	0	0	0	1	10	1	10	0	0	0	0	0;
	13173	2.55	0	0	0	1	10.5	1	8.5	0	0	0	0	0;
	13174	10.755	0	0	0	1	36	1	35.85	0	0	0	0	0;
	13175	3.45	0	0	0	1	11.5	1	11.5	0	0	0	0	0;
	13176	5.4	0	0	0	1	18.75	1	18	0	0	0	0	0;
	13434	4.3	0	0	0	1	4.5	0	4.3	0	0	0	0	0;
	13471	0.198	0	0	0	1	0.66	1	0.66	0	0	0	0	0;
	13472	0.765	0	0	-0.84	1	2.7	1	2.55	0	0	0	0	0;
	13473	3	0	0	0	1	10	1	10	0	0	0	0	0;
	13474	1.8	0	0	0	1	6.25	1	6	0	0	0	0	0;
	13475	2.295	0	0	0	1	7.65	1	7.65	0	0	0	0	0;
	13476	3.57	0	0	0	1	11.5	1	11.9	0	0	0	0	0;
	13477	0.765	0	0	0	1	2.7	1	2.55	0	0	0	0	0;
	13479	1.02	0	0	0	1	3.4	1	3.4	0	0	0	0	0;
	14073	1.935	-2.4	-2.4	-2.4	1.04	7.611	1	6.45	0	0	0	0	0;
	14075	10	0	0	0	1	10	0	10	1	0	0	0	0;
	14471	1.2	0	0	0	1.04	4	1	4	0	0	0	0	0;
	14472	0.255	0	0	0	1	0.85	1	0.85	0	0	0	0	0;
	14604	4.8	0	0	0	1.05	7	0	4.8	0	0	0	0	0;
	14871	0.51	0	0	0	1.04	4.6	1	1.7	0	0	0	0	0;
	14902	450	0	279	-178	1	540	0	450	225	0	0	0	0;
	15171	13.8	0.518	15.12	-15.12	1	46	1	46	0	0	0	0	0;
	15172	3	-3.29	3.29	-3.29	1	10	1	10	0	0	0	0	0;
	15173	0.765	-0.84	0.84	-0.84	1	2.55	1	2.55	0	0	0	0	0;
	15174	6	-6.57	6.57	-6.57	1	20	1	20	0	0	0	0	0;
	15571	1.785	-1.772	1.96	-1.96	1	5.95	1	5.95	0	0	0	0	0;
	15572	5.4	-3.844	5.92	-5.92	1	18.75	1	18	0	0	0	0	0;
	15573	6	0	0	0	1.04	23	1	20	0	0	0	0	0;
	15771	0.594	-0.3	-0.3	-0.3	1	1.98	1	1.98	0	0	0	0	0;
	15772	0.9	-1.92	-1.92	-1.92	1	3	1	3	0	0	0	0	0;
	16371	1.02	0	0	0	1	3.4	1	3.4	0	0	0	0	0;
	16372	1.02	0	0	0	1	3.4	1	3.4	0	0	0	0	0;
	16373	2.04	0	0	0	1	6.8	1	6.8	0	0	0	0	0;
	16374	2.295	0	0	0	1	7.65	1	7.65	0	0	0	0	0;
	16375	1.188	0	0	0	1	4.25	1	3.96	0	0	0	0	0;
	16376	1.485	0	0	0	1	5.1	1	4.95	0	0	0	0	0;
	16377	2.7	0	0	0	1	9.2	1	9	0	0	0	0	0;
	16378	0.48	0	0	0	1	1.7	1	1.6	0	0	0	0	0;
	16379	0.087	0	0	0	1	0.323	1	0.29	0	0	0	0	0;
	16571	11.34	0	0	0	1	40	1	37.8	0	0	0	0	0;
	16670	1.35	-1.385	0	-3.07	1	4.5	1	4.5	0	0	0	0	0;
	16671	1.02	0	0	0	1.04	3.4	1	3.4	0	0	0	0	0;
	16672	0.477	-0.56	-0.56	-0.56	1.04	1.7	1	1.59	0	0	0	0	0;
	16674	5.61	0	0	0	1.04	18.7	1	18.7	0	0	0	0	0;
	16675	2.4	-2.65	-2.65	-2.65	1.04	8	1	8	0	0	0	0	0;
	16677	1.02	0	0	0	1	3.4	1	3.4	0	0	0	0	0;
	16679	1.02	0	0	0	1	3.4	1	3.4	0	0	0	0	0;
	16873	8	0	7	-1	1	11.5	0	8	2	0	0	0	0;
	17073	22.5	0	23	-25	1	35.5	0	22.5	5	0	0	0	0;
	17074	22.5	0	23	-25	1	35.5	0	22.5	5	0	0	0	0;
	17075	0.594	-0.8	-0.8	-0.8	1	1.98	1	1.98	0	0	0	0	0;
	17077	0.006	0	0	0	1	1.2	1	0.02	0	0	0	0	0;
	17671	10	0	7	-3	1	12.5	0	10	3	0	0	0	0;
	17672	10	0	7	-3	1	12.5	0	10	3	0	0	0	0;
	18271	1.275	-1	-1	-1	1	4.25	1	4.25	0	0	0	0	0;
	18471	1.497	0	0	0	1.04	5.2	1	4.99	0	0	0	0	0;
	18472	0.75	-0.58	0	-0.82	1	2.978	1	2.5	0	0	0	0	0;
	18901	58	0	30	-21.32	1	68.235	0	58	20	0	0	0	0;
	19081	0.765	0	0	0	1.04	2.55	1	2.55	0	0	0	0	0;
	19082	0.51	0	0	0	1.04	1.7	1	1.7	0	0	0	0	0;
	19083	1.497	0	0	0	1.04	6.9	1	4.99	0	0	0	0	0;
	19084	1.35	-1.5	-1.5	-1.5	1.04	4.6	1	4.5	0	0	0	0	0;
	19085	6.3	-7	-7	-7	1.04	23.824	1	21	0	0	0	0	0;
	19101	98.4	0	51	-36.17	1	108.24	0	98.4	34	0	0	0	0;
	19317	0	-6	6	-6	1	6	1	0	0	0	0	0	0;
	19371	7.125	0	0	0	1	29.78	1	23.75	0	0	0	0	0;
	19372	3.315	0	0	0	1	11.05	1	11.05	0	0	0	0	0;
	19471	60	-21.975	94	-50	1	153	1	133.5	60	0	0	0	0;
	19472	58.274	0	38	-23	1	66.625	0	58.274	19.7	0	0	0	0;
	19473	58.274	0	40	-23	1	66.625	0	58.274	19.7	0	0	0	0;
	19601	1.755	0	0	0	1	6.5	1	5.85	0	0	0	0	0;
	19771	12.75	0	0	0	1	46.875	1	42.5	0	0	0	0	0;
	19772	2.55	-2.79	2.79	-2.79	1	8.5	1	8.5	0	0	0	0	0;
	19773	9	-9.86	9.86	-9.86	1	38.714	1	30	0	0	0	0	0;
	19971	6	-6.7	6.7	-6.7	1	20.7	1	20	0	0	0	0	0;
	19972	0.69	0	0	0	1	2.3	1	2.3	0	0	0	0	0;
	19973	0.69	0	0	0	1	2.3	1	2.3	0	0	0	0	0;
	19974	4.83	-4	4	-4	1	16.1	1	16.1	0	0	0	0	0;
	20101	35	0	21	-14	1	41.2	0	35	-38	0	0	0	0;
	21071	0.15	0	0	0	1.04	0.85	1	0.5	0	0	0	0	0;
	21371	8.55	-4.842	9.5	-9.5	1	31.73	1	28.5	0	0	0	0	0;
	21372	5.25	-2.956	5.8	-5.8	1	23.38	1	17.5	0	0	0	0	0;
	21871	0.51	0	0	0	1	1.7	1	1.7	0	0	0	0	0;
	21872	0.75	-0.99	-0.99	-1.28	1	2.7	1	2.5	0	0	0	0	0;
	21873	1.274	0	0	0	1	1.6	0	1.274	0	0	0	0	0;
	21875	3	0	0	0	1	3.78	0	3	0	0	0	0	0;
	22272	5.1	-4.22	0	-5.59	1	16	1	17	0	0	0	0	0;
	22273	1.35	-0.831	0	-1.48	1	4	1	4.5	0	0	0	0	0;
	22274	1.782	-2.4	-2.4	-2.4	1	5.94	1	5.94	0	0	0	0	0;
	22275	1.275	0	0	0	1	4.25	1	4.25	0	0	0	0	0;
	22276	1.785	0	0	0	1	6.68	1	5.95	0	0	0	0	0;
	22277	0.915	-0.874	0	-0.99	1	3.34	1	3.05	0	0	0	0	0;
	22278	1.386	-1	-1	-1	1	4.62	1	4.62	0	0	0	0	0;
	22292	6	0	0	0	1	6	0	6	0	0	0	0	0;
	22371	17.85	0	0	0	1	59.5	1	59.5	0	0	0	0	0;
	22471	0.765	0	0	0	1.04	2.55	1	2.55	0	0	0	0	0;
	22472	1.275	0	0	0	1.04	4.25	1	4.25	0	0	0	0	0;
	22473	1.275	-1.5	-1.5	-1.5	1	4.25	1	4.25	0	0	0	0	0;
	22671	52.1	0	32.6	-22.7	1.02	62	0	52.1	1.2	0	0	0	0;
	22672	52.1	0	32.6	-22.7	1.02	62	0	52.1	1.2	0	0	0	0;
	22673	14.56	0	10.92	-3.64	1	18.2	0	14.56	0	0	0	0	0;
	22871	0.72	-0.957	-0.84	-1.09	1	2.4	1	2.4	0	0	0	0	0;
	22872	12.24	0	0	0	1	45.423	1	40.8	0	0	0	0	0;
	23671	7.2	-7.89	0	-7.89	1	25	1	24	0	0	0	0	0;
	25604	1.6	0	0	0	1	1.7	0	1.6	0	0	0	0	0;
	26771	7.8	-10	10	-10	1	26	1	26	0	0	0	0	0;
	26772	1.8	0	0	0	1	6	1	6	6	0	0	0	0;
	26773	6.6	-10	10	-10	1	22	1	22	0	0	0	0	0;
	26774	1.8	0	0	0	1	6	1	6	6	0	0	0	0;
	27071	0.24	0	0	0	1	0.8	1	0.8	0	0	0	0	0;
	27204	4	0	1	-1	1.04	5	0	4	0	0	0	0	0;
	27361	0	-12.3	12.3	-12.3	1	12.3	1	0	0	0	0	0	0;
	27371	3.84	0	0	0	1	14.45	1	12.8	0	0	0	0	0;
	27372	5.1	0	0	0	1	18.75	1	17	0	0	0	0	0;
	27374	1.8	-1.97	-1.97	-1.97	1	6.25	1	6	0	0	0	0	0;
	27474	469.5	0	285	-182	1	570.6	0	469.5	235	0	0	0	0;
	27771	12.368	-13.61	13	-13.61	1	41.4	1	41.225	0	0	0	0	0;
	27772	3	-2	-2	-2	1	11.912	1	10	0	0	0	0	0;
	27773	1.5	-1	-1	-1	1	4.6	1	5	0	0	0	0	0;
	27774	5.4	-3	-3	-3	1	18.4	1	18	0	0	0	0	0;
	27871	0.99	-0.7	-0.7	-0.7	1	3.3	1	3.3	0	0	0	0	0;
	28071	4.5	-6	-6	-6	1	15	1	15	0	0	0	0	0;
	28271	0.9	-1.2	-1.2	-1.2	1.04	3.34	1	3	0	0	0	0	0;
	28571	180	-167.222	282.1	-190	1	535.5	1	450.5	110.1	0	0	0	0;
	28871	1.8	-1.97	1.97	-1.97	1	6.68	1	6	0	0	0	0	0;
	28872	3.15	0	0	0	1.04	13.8	1	10.5	0	0	0	0	0;
	28873	4.95	-5.42	5.42	-5.42	1	18.4	1	16.5	0	0	0	0	0;
	28874	7.8	0	0	0	1	27.6	1	26	0	0	0	0	0;
	29671	123	0	107	-53	1	150	0	123	40	0	0	0	0;
	29672	138	-87	181	-87	1	288	1	236.2	138	0	0	0	0;
	29673	400	0	255	-170	1	473	0	400	194	0	0	0	0;
	30671	15	0	13	-4	1	21.4	0	15	4	0	0	0	0;
	30671	4	0	3	-1	1	5.7	0	4	1	0	0	0	0;
	31071	0.765	0	0	0	1	2.55	1	2.55	0	0	0	0	0;
	31072	0.255	-0.28	-0.28	-0.36	1	0.85	1	0.85	0	0	0	0	0;
	31074	0.765	0	0	0	1.04	2.55	1	2.55	0	0	0	0	0;
	31271	200	-100	295	-100	1	500	1	409.9	163	0	0	0	0;
	32171	8.925	-9.78	9.78	-9.78	1	36	1	29.75	0	0	0	0	0;
	32271	0.24	0	0	0	1	0.8	1	0.8	0	0	0	0	0;
	32404	4.26	0	1	-1	1.04	4.8	0	4.26	0	0	0	0	0;
	32570	13.305	-4.171	4.6	-4.6	1	46.875	1	44.35	0	0	0	0	0;
	32576	3.36	-2.165	0	-5.03	1	11.2	1	11.2	0	0	0	0	0;
	32577	1.08	-0.683	0	-5.03	1	3.6	1	3.6	0	0	0	0	0;
	32578	1.25	0	0	0	1	1.25	0	1.25	0	0	0	0	0;
	32604	7.5	0	1	-1	1.05	8.5	0	7.5	2	0	0	0	0;
	32604	0.18	0	0	0	1.05	0.2	0	0.18	0	0	0	0	0;
	33071	1.35	-1.463	0	-1.48	1	4	1	4.5	0	0	0	0	0;
	33072	2.805	0	0	0	1.04	9.35	1	9.35	0	0	0	0	0;
	33971	26.1	-14.543	28.6	-28.6	1	104.23	1	87	0	0	0	0	0;
	35071	1.38	-1.64	-1.64	-2.13	1	4.6	1	4.6	0	0	0	0	0;
	35074	70	-27.824	60	-39	1	121.1	1	103.3	70	0	0	0	0;
	35871	0.765	0	0	0	1	2.55	1	2.55	0	0	0	0	0;
	35872	0.735	0	0	0	1	2.55	1	2.45	0	0	0	0	0;
	35873	0.96	0	0	0	1	3.2	1	3.2	0	0	0	0	0;
	35875	4.5	-6	-6	-6	1	17.7	1	15	0	0	0	0	0;
	35876	3.564	-4.8	-4.8	-4.8	1	11.88	1	11.88	0	0	0	0	0;
	35877	1.497	0	0	0	1	5.4	1	4.99	0	0	0	0	0;
	36271	10.8	2.04	12	-12	1	36	1	36	0	0	0	0	0;
	36272	5.7	1.275	7.5	-75	1	20	1	19	0	0	0	0	0;
	36471	4.335	0	0	0	1	15	1	14.45	0	0	0	0	0;
	36472	1.2	-1.31	-1.31	-1.7	1.04	4.6	1	4	0	0	0	0	0;
	36473	1.38	0	0	0	1	4.6	1	4.6	0	0	0	0	0;
	36474	1.08	-1.18	-1.18	-1.53	1.04	4	1	3.6	0	0	0	0	0;
	36475	1.2	-1.2	-1.2	-1.2	1.04	4.6	1	4	0	0	0	0	0;
	36476	4.44	2.745	4	-4	1.04	17.868	1	14.8	0	0	0	0	0;
	38071	0.48	-0.56	-0.56	-0.56	1	1.6	1	1.6	0	0	0	0	0;
	38244	1	0	0	0	1	6.5	0	1	0	0	0	0	0;
	38271	3.15	0	0	0	1.04	11.69	1	10.5	0	0	0	0	0;
	38272	1.35	0	0	0	1.04	5.01	1	4.5	0	0	0	0	0;
...
];

%%%% generator cost data
%%	1	startup	shutdown	n	x1	y1	...	xn	yn
%%	2	startup	shutdown	n	c(n-1)	...	c0
mpc.gencost = [
	1	0	0	3	0.01	0.1	10;
	1	0	0	3	0.01	0.1	10;
	1	0	0	3	0.01	0.1	10;
	1	0	0	3	0.01	0.1	10;
	1	0	0	3	0.01	0.1	10;
	1	0	0	3	0.01	0.1	10;
	1	0	0	3	0.01	0.1	10;
	1	0	0	3	0.01	0.1	10;
	1	0	0	3	0.01	0.1	10;
	1	0	0	3	0.01	0.1	10;
	1	0	0	3	0.01	0.1	10;
	1	0	0	3	0.01	0.1	10;
	1	0	0	3	0.01	0.1	10;
	1	0	0	3	0.01	0.1	10;
	1	0	0	3	0.01	0.1	10;
	1	0	0	3	0.01	0.1	10;
	1	0	0	3	0.01	0.1	10;
	1	0	0	3	0.01	0.1	10;
	1	0	0	3	0.01	0.1	10;
	1	0	0	3	0.01	0.1	10;
	1	0	0	3	0.01	0.1	10;
	1	0	0	3	0.01	0.1	10;
	1	0	0	3	0.01	0.1	10;
	1	0	0	3	0.01	0.1	10;
	1	0	0	3	0.01	0.1	10;
	1	0	0	3	0.01	0.1	10;
	1	0	0	3	0.01	0.1	10;
	1	0	0	3	0.01	0.1	10;
	1	0	0	3	0.01	0.1	10;
	1	0	0	3	0.01	0.1	10;
	1	0	0	3	0.01	0.1	10;
	1	0	0	3	0.01	0.1	10;
	1	0	0	3	0.01	0.1	10;
	1	0	0	3	0.01	0.1	10;
	1	0	0	3	0.01	0.1	10;
	1	0	0	3	0.01	0.1	10;
	1	0	0	3	0.01	0.1	10;
	1	0	0	3	0.01	0.1	10;
	1	0	0	3	0.01	0.1	10;
	1	0	0	3	0.01	0.1	10;
	1	0	0	3	0.01	0.1	10;
	1	0	0	3	0.01	0.1	10;
	1	0	0	3	0.01	0.1	10;
	1	0	0	3	0.01	0.1	10;
	1	0	0	3	0.01	0.1	10;
	1	0	0	3	0.01	0.1	10;
	1	0	0	3	0.01	0.1	10;
	1	0	0	3	0.01	0.1	10;
	1	0	0	3	0.01	0.1	10;
	1	0	0	3	0.01	0.1	10;
	1	0	0	3	0.01	0.1	10;
	1	0	0	3	0.01	0.1	10;
	1	0	0	3	0.01	0.1	10;
	1	0	0	3	0.01	0.1	10;
	1	0	0	3	0.01	0.1	10;
	1	0	0	3	0.01	0.1	10;
	1	0	0	3	0.01	0.1	10;
	1	0	0	3	0.01	0.1	10;
	1	0	0	3	0.01	0.1	10;
	1	0	0	3	0.01	0.1	10;
	1	0	0	3	0.01	0.1	10;
	1	0	0	3	0.01	0.1	10;
	1	0	0	3	0.01	0.1	10;
	1	0	0	3	0.01	0.1	10;
	1	0	0	3	0.01	0.1	10;
	1	0	0	3	0.01	0.1	10;
	1	0	0	3	0.01	0.1	10;
	1	0	0	3	0.01	0.1	10;
	1	0	0	3	0.01	0.1	10;
	1	0	0	3	0.01	0.1	10;
	1	0	0	3	0.01	0.1	10;
	1	0	0	3	0.01	0.1	10;
	1	0	0	3	0.01	0.1	10;
	1	0	0	3	0.01	0.1	10;
	1	0	0	3	0.01	0.1	10;
	1	0	0	3	0.01	0.1	10;
	1	0	0	3	0.01	0.1	10;
	1	0	0	3	0.01	0.1	10;
	1	0	0	3	0.01	0.1	10;
	1	0	0	3	0.01	0.1	10;
	1	0	0	3	0.01	0.1	10;
	1	0	0	3	0.01	0.1	10;
	1	0	0	3	0.01	0.1	10;
	1	0	0	3	0.01	0.1	10;
	1	0	0	3	0.01	0.1	10;
	1	0	0	3	0.01	0.1	10;
	1	0	0	3	0.01	0.1	10;
	1	0	0	3	0.01	0.1	10;
	1	0	0	3	0.01	0.1	10;
	1	0	0	3	0.01	0.1	10;
	1	0	0	3	0.01	0.1	10;
	1	0	0	3	0.01	0.1	10;
	1	0	0	3	0.01	0.1	10;
	1	0	0	3	0.01	0.1	10;
	1	0	0	3	0.01	0.1	10;
	1	0	0	3	0.01	0.1	10;
	1	0	0	3	0.01	0.1	10;
	1	0	0	3	0.01	0.1	10;
	1	0	0	3	0.01	0.1	10;
	1	0	0	3	0.01	0.1	10;
	1	0	0	3	0.01	0.1	10;
	1	0	0	3	0.01	0.1	10;
	1	0	0	3	0.01	0.1	10;
	1	0	0	3	0.01	0.1	10;
	1	0	0	3	0.01	0.1	10;
	1	0	0	3	0.01	0.1	10;
	1	0	0	3	0.01	0.1	10;
	1	0	0	3	0.01	0.1	10;
	1	0	0	3	0.01	0.1	10;
	1	0	0	3	0.01	0.1	10;
	1	0	0	3	0.01	0.1	10;
	1	0	0	3	0.01	0.1	10;
	1	0	0	3	0.01	0.1	10;
	1	0	0	3	0.01	0.1	10;
	1	0	0	3	0.01	0.1	10;
	1	0	0	3	0.01	0.1	10;
	1	0	0	3	0.01	0.1	10;
	1	0	0	3	0.01	0.1	10;
	1	0	0	3	0.01	0.1	10;
	1	0	0	3	0.01	0.1	10;
	1	0	0	3	0.01	0.1	10;
	1	0	0	3	0.01	0.1	10;
	1	0	0	3	0.01	0.1	10;
	1	0	0	3	0.01	0.1	10;
	1	0	0	3	0.01	0.1	10;
	1	0	0	3	0.01	0.1	10;
	1	0	0	3	0.01	0.1	10;
	1	0	0	3	0.01	0.1	10;
	1	0	0	3	0.01	0.1	10;
	1	0	0	3	0.01	0.1	10;
	1	0	0	3	0.01	0.1	10;
	1	0	0	3	0.01	0.1	10;
	1	0	0	3	0.01	0.1	10;
	1	0	0	3	0.01	0.1	10;
	1	0	0	3	0.01	0.1	10;
	1	0	0	3	0.01	0.1	10;
	1	0	0	3	0.01	0.1	10;
	1	0	0	3	0.01	0.1	10;
	1	0	0	3	0.01	0.1	10;
	1	0	0	3	0.01	0.1	10;
	1	0	0	3	0.01	0.1	10;
	1	0	0	3	0.01	0.1	10;
	1	0	0	3	0.01	0.1	10;
	1	0	0	3	0.01	0.1	10;
	1	0	0	3	0.01	0.1	10;
	1	0	0	3	0.01	0.1	10;
	1	0	0	3	0.01	0.1	10;
	1	0	0	3	0.01	0.1	10;
	1	0	0	3	0.01	0.1	10;
	1	0	0	3	0.01	0.1	10;
	1	0	0	3	0.01	0.1	10;
	1	0	0	3	0.01	0.1	10;
	1	0	0	3	0.01	0.1	10;
	1	0	0	3	0.01	0.1	10;
	1	0	0	3	0.01	0.1	10;
	1	0	0	3	0.01	0.1	10;
	1	0	0	3	0.01	0.1	10;
	1	0	0	3	0.01	0.1	10;
	1	0	0	3	0.01	0.1	10;
	1	0	0	3	0.01	0.1	10;
	1	0	0	3	0.01	0.1	10;
	1	0	0	3	0.01	0.1	10;
	1	0	0	3	0.01	0.1	10;
	1	0	0	3	0.01	0.1	10;
	1	0	0	3	0.01	0.1	10;
	1	0	0	3	0.01	0.1	10;
	1	0	0	3	0.01	0.1	10;
	1	0	0	3	0.01	0.1	10;
	1	0	0	3	0.01	0.1	10;
	1	0	0	3	0.01	0.1	10;
	1	0	0	3	0.01	0.1	10;
	1	0	0	3	0.01	0.1	10;
	1	0	0	3	0.01	0.1	10;
	1	0	0	3	0.01	0.1	10;
	1	0	0	3	0.01	0.1	10;
	1	0	0	3	0.01	0.1	10;
	1	0	0	3	0.01	0.1	10;
	1	0	0	3	0.01	0.1	10;
	1	0	0	3	0.01	0.1	10;
	1	0	0	3	0.01	0.1	10;
	1	0	0	3	0.01	0.1	10;
	1	0	0	3	0.01	0.1	10;
	1	0	0	3	0.01	0.1	10;
	1	0	0	3	0.01	0.1	10;
	1	0	0	3	0.01	0.1	10;
	1	0	0	3	0.01	0.1	10;
	1	0	0	3	0.01	0.1	10;
	1	0	0	3	0.01	0.1	10;
	1	0	0	3	0.01	0.1	10;
	1	0	0	3	0.01	0.1	10;
	1	0	0	3	0.01	0.1	10;
	1	0	0	3	0.01	0.1	10;
	1	0	0	3	0.01	0.1	10;
	1	0	0	3	0.01	0.1	10;
	1	0	0	3	0.01	0.1	10;
	1	0	0	3	0.01	0.1	10;
	1	0	0	3	0.01	0.1	10;
	1	0	0	3	0.01	0.1	10;
	1	0	0	3	0.01	0.1	10;
	1	0	0	3	0.01	0.1	10;
...
];
